***** HSPICE -- G-2012.06-SP2 64-BIT (Nov 27 2012) RHEL64 ******
 Input File: test.sp
 lic:
 lic: FLEXlm: v10.9.8
 lic: USER:   lshao                HOSTNAME: linux10.engr.ucsb.edu
 lic: HOSTID: e06995c93953         PID:      20010
 lic: Using FLEXlm license file:
 lic: 1781@license.ece.ucsb.edu
 lic: Checkout 1 hspice
 lic: License/Maintenance for hspice will expire on 16-apr-2016/2015.06
 lic: 1(in_use)/50(total) FLOATING license(s) on SERVER license.ece.ucsb.edu
 lic:
 init: begin read circuit files,  cpu clock=  8.00E-02
       option search = /tools/ece/synopsys/hspice/G-2012.06-SP2/hspice/
                         parts/ad
       option search = /tools/ece/synopsys/hspice/G-2012.06-SP2/hspice/
                         parts/ad
       option search = /tools/ece/synopsys/hspice/G-2012.06-SP2/hspice/
                         parts/behave
       option search = /tools/ece/synopsys/hspice/G-2012.06-SP2/hspice/
                         parts/bjt
       option search = /tools/ece/synopsys/hspice/G-2012.06-SP2/hspice/
                         parts/burr_brn
       option search = /tools/ece/synopsys/hspice/G-2012.06-SP2/hspice/
                         parts/comlinear
       option search = /tools/ece/synopsys/hspice/G-2012.06-SP2/hspice/
                         parts/dio
       option search = /tools/ece/synopsys/hspice/G-2012.06-SP2/hspice/
                         parts/fet
       option search = /tools/ece/synopsys/hspice/G-2012.06-SP2/hspice/
                         parts/lin_tech
       option search = /tools/ece/synopsys/hspice/G-2012.06-SP2/hspice/
                         parts/pci
       option search = /tools/ece/synopsys/hspice/G-2012.06-SP2/hspice/
                         parts/signet
       option search = /tools/ece/synopsys/hspice/G-2012.06-SP2/hspice/
                         parts/ti
       option search = /tools/ece/synopsys/hspice/G-2012.06-SP2/hspice/
                         parts/tline
       option search = /tools/ece/synopsys/hspice/G-2012.06-SP2/hspice/
                         parts/xilinx
       option runlvl
       option post
       option acct
       option opts
       option lvltim =     2.00
       option nomod
       option rmin =    1.000E-12
       option post
 init: end read circuit files,  cpu clock=  8.00E-02 peak memory=       147 mb
 init: begin check errors,  cpu clock=  8.00E-02
 init: end check errors,  cpu clock=  9.00E-02 peak memory=       147 mb
 init: begin setup matrix, pivot=     0 cpu clock=  9.00E-02
       establish matrix -- done,  cpu clock=  9.00E-02 peak memory=       147 mb
       re-order matrix -- done,  cpu clock=  9.00E-02 peak memory=       147 mb
 init: end setup matrix,  cpu clock=  9.00E-02 peak memory=       147 mb
 sweep: parameter       parameter1       begin, #sweeps =   6
 parameter: vgs             =    0.00E+00
 output: test.sw0
 sweep: dc dc1    begin, #sweeps=  51 cpu clock=  9.00E-02
 sweep: dc dc1    end,  cpu clock=  1.00E-01 peak memory=       148 mb
 parameter: vgs             =    1.00E+00
 output: test.sw0
 sweep: dc dc2    begin, #sweeps=  51 cpu clock=  1.00E-01
 sweep: dc dc2    end,  cpu clock=  1.10E-01 peak memory=       148 mb
 parameter: vgs             =    2.00E+00
 output: test.sw0
 sweep: dc dc3    begin, #sweeps=  51 cpu clock=  1.10E-01
 sweep: dc dc3    end,  cpu clock=  1.10E-01 peak memory=       148 mb
 parameter: vgs             =    3.00E+00
 output: test.sw0
 sweep: dc dc4    begin, #sweeps=  51 cpu clock=  1.10E-01
 sweep: dc dc4    end,  cpu clock=  1.20E-01 peak memory=       148 mb
 parameter: vgs             =    4.00E+00
 output: test.sw0
 sweep: dc dc5    begin, #sweeps=  51 cpu clock=  1.20E-01
 sweep: dc dc5    end,  cpu clock=  1.30E-01 peak memory=       148 mb
 parameter: vgs             =    5.00E+00
 output: test.sw0
 sweep: dc dc6    begin, #sweeps=  51 cpu clock=  1.30E-01
 sweep: dc dc6    end,  cpu clock=  1.40E-01 peak memory=       148 mb
 sweep: parameter       parameter       1 end
>info:         ***** hspice job concluded
 lic: Release hspice token(s)
